 ****** HSPICE -- A-2008.03 32-BIT (Feb 26 2008) winnt ******                   
  Copyright (C) 2008 Synopsys, Inc. All Rights Reserved.                        
  Unpublished-rights reserved under US copyright laws.
  This program is protected by law and is subject to the 
  terms and conditions of the license agreement found in:
    C:\Synopsys\Hspice_A-2008.03\license.warn
  Use of this program is your acceptance to be bound by this 
  license agreement. HSPICE is the trademark of Synopsys, Inc.
  Input File: d:\sharif courses\vlsi\project\booth algorithm\advanced-vlsi-proje
 Init: read install configuration file: C:\Synopsys\Hspice_A-2008.03\meta.cfg
 Init: hspice initialization file: C:\Synopsys\Hspice_A-2008.03\hspice.ini





 .include 45nm_mgk.pm
 * ptm 45nm metal gate / high-k  

 .model  nmos  nmos level=54 

 +version = 4.0             binunit = 1               paramchk= 1               mobmod  = 0             
 +capmod  = 2               igcmod  = 1               igbmod  = 1               geomod  = 1             
 +diomod  = 1               rdsmod  = 0               rbodymod= 1               rgatemod= 1             
 +permod  = 1               acnqsmod= 0               trnqsmod= 0             

 +tnom    = 27              toxe    = 9e-010          toxp    = 6.5e-010        toxm    = 9e-010        
 +dtox    = 2.5e-010        epsrox  = 3.9             wint    = 5e-009          lint    = 2.7e-009      
 +ll      = 0               wl      = 0               lln     = 1               wln     = 1             
 +lw      = 0               ww      = 0               lwn     = 1               wwn     = 1             
 +lwl     = 0               wwl     = 0               xpart   = 0               toxref  = 9e-010           xl      = -20e-9
 +dlcig   = 2.7e-009      

 +vth0    = 0.3423          k1      = 0.2             k2      = 0               k3      = 0             
 +k3b     = 0               w0      = 2.5e-006        dvt0    = 1               dvt1    = 2             
 +dvt2    = 0               dvt0w   = 0               dvt1w   = 0               dvt2w   = 0             
 +dsub    = 0.078           minv    = 0.05            voffl   = 0               dvtp0   = 1e-010        
 +dvtp1   = 0.1             lpe0    = 0               lpeb    = 0               xj      = 1.4e-008      
 +ngate   = 1e+023          ndep    = 6.5e+018        nsd     = 2e+020          phin    = 0             
 +cdsc    = 0               cdscb   = 0               cdscd   = 0               cit     = 0             
 +voff    = -0.13           nfactor = 1.9             eta0    = 0.0055          etab    = 0             
 +vfb     = -1.058          u0      = 0.02947         ua      = -5e-010         ub      = 1.7e-018      
 +uc      = 0               vsat    = 159550          a0      = 1               ags     = 0             
 +a1      = 0               a2      = 1               b0      = 0               b1      = 0             
 +keta    = 0.04            dwg     = 0               dwb     = 0               pclm    = 0.06          
 +pdiblc1 = 0.001           pdiblc2 = 0.001           pdiblcb = -0.005          drout   = 0.5           
 +pvag    = 1e-020          delta   = 0.01            pscbe1  = 2.0e+009        pscbe2  = 1e-007        
 +fprout  = 0.2             pdits   = 0.01            pditsd  = 0.23            pditsl  = 2300000       
 +rsh     = 5               rdsw    = 105             rsw     = 52.5            rdw     = 52.5            
 +rdswmin = 0               rdwmin  = 0               rswmin  = 0               prwg    = 0             
 +prwb    = 0               wr      = 1               alpha0  = 0.074           alpha1  = 0.005         
 +beta0   = 30              agidl   = 0.0002          bgidl   = 2.1e+009        cgidl   = 0.0002        
 +egidl   = 0.8             aigbacc = 0.012           bigbacc = 0.0028          cigbacc = 0.002         
 +nigbacc = 1               aigbinv = 0.014           bigbinv = 0.004           cigbinv = 0.004         
 +eigbinv = 1.1             nigbinv = 3               aigc    = 0.018029        bigc    = 0.0029        
 +cigc    = 0.002           aigsd   = 0.018029        bigsd   = 0.0029          cigsd   = 0.002         
 +nigc    = 1               poxedge = 1               pigcd   = 1               ntox    = 1             
 +xrcrg1  = 12              xrcrg2  = 5             

 +cgso    = 1e-010          cgdo    = 1e-010          cgbo    = 0               cgdl    = 7.5e-013      
 +cgsl    = 7.5e-013        clc     = 1e-007          cle     = 0.6             cf      = 1.1e-010      
 +ckappas = 0.6             ckappad = 0.6             vfbcv   = -1              acde    = 1             
 +moin    = 15              noff    = 1               voffcv  = 0             

 +kt1     = -0.154          kt1l    = 0               kt2     = 0.022           ute     = -1.1          
 +ua1     = 1e-009          ub1     = -1e-018         uc1     = -5.6e-011       prt     = 0             
 +at      = 33000         

 +fnoimod = 1               tnoimod = 0               noia    = 6.25e+041       noib    = 3.125e+026    
 +noic    = 8.75e+009       em      = 41000000        af      = 1               ef      = 1             
 +kf      = 0               tnoia   = 1.5             tnoib   = 3.5             ntnoi   = 1             

 +jss     = 1.2e-006        jsws    = 2.4e-013        jswgs   = 2.4e-013        njs     = 1             
 +ijthsfwd= 0.1             ijthsrev= 0.1             bvs     = 10              xjbvs   = 1             
 +jsd     = 1.2e-006        jswd    = 2.4e-013        jswgd   = 2.4e-013        xjbvd   = 1             
 +pbs     = 1               cjs     = 0.0018          mjs     = 0.5             pbsws   = 1             
 +cjsws   = 1.2e-010        mjsws   = 0.33            cjswgs  = 2.1e-010        cjd     = 0.0018        
 +cjswd   = 1.2e-010        mjswd   = 0.33            pbswgd  = 1               cjswgd  = 2.1e-010      
 +mjswgd  = 0.33            tpb     = 0               tcj     = 0               tpbsw   = 0             
 +tcjsw   = 0               tpbswg  = 0               tcjswg  = 0               xtis    = 3             

 +dmcg    = 0               dmci    = 0               dmdg    = 0               dmcgt   = 0             
 +dwj     = 0               xgw     = 0               xgl     = 0             

 +rshg    = 0.4             gbmin   = 1e-010          rbpb    = 5               rbpd    = 15            
 +rbps    = 15              rbdb    = 15              rbsb    = 15              ngcon   = 1    

 .model  pmos pmos level = 54 

 +version = 4.0             binunit = 1               paramchk= 1               mobmod  = 0
 +capmod  = 2               igcmod  = 1               igbmod  = 1               geomod  = 1
 +diomod  = 1               rdsmod  = 0               rbodymod= 1               rgatemod= 1
 +permod  = 1               acnqsmod= 0               trnqsmod= 0

 +tnom    = 27              toxe    = 9.2e-010        toxp    = 6.5e-010        toxm    = 9.2e-010
 +dtox    = 2.7e-010        epsrox  = 3.9             wint    = 5e-009          lint    = 2.7e-009
 +ll      = 0               wl      = 0               lln     = 1               wln     = 1
 +lw      = 0               ww      = 0               lwn     = 1               wwn     = 1
 +lwl     = 0               wwl     = 0               xpart   = 0               toxref  = 9.2e-010         xl      = -20e-9
 +dlcig   = 2.7e-009

 +vth0    = -0.23122        k1      = 0.2             k2      = -0.01           k3      = 0
 +k3b     = 0               w0      = 2.5e-006        dvt0    = 1               dvt1    = 2
 +dvt2    = -0.032          dvt0w   = 0               dvt1w   = 0               dvt2w   = 0
 +dsub    = 0.1             minv    = 0.05            voffl   = 0               dvtp0   = 1e-011
 +dvtp1   = 0.05            lpe0    = 0               lpeb    = 0               xj      = 1.4e-008
 +ngate   = 1e+023          ndep    = 2.8e+018        nsd     = 2e+020          phin    = 0
 +cdsc    = 0               cdscb   = 0               cdscd   = 0               cit     = 0
 +voff    = -0.13           nfactor = 1.9             eta0    = 0.0049          etab    = 0
 +vfb     = -1.058          u0      = 0.00391         ua      = -5e-010         ub      = 1.6e-018
 +uc      = 0               vsat    = 78000           a0      = 1               ags     = 1e-020
 +a1      = 0               a2      = 1               b0      = 0               b1      = 0
 +keta    = -0.047          dwg     = 0               dwb     = 0               pclm    = 0.1
 +pdiblc1 = 0.001           pdiblc2 = 0.001           pdiblcb = 3.4e-008        drout   = 0.6
 +pvag    = 1e-020          delta   = 0.01            pscbe1  = 2e+009          pscbe2  = 9.58e-007
 +fprout  = 0.2             pdits   = 0.08            pditsd  = 0.23            pditsl  = 2300000
 +rsh     = 5               rdsw    = 105             rsw     = 52.5            rdw     = 52.5
 +rdswmin = 0               rdwmin  = 0               rswmin  = 0               prwg    = 0
 +prwb    = 0               wr      = 1               alpha0  = 0.074           alpha1  = 0.005
 +beta0   = 30              agidl   = 0.0002          bgidl   = 2.1e+009        cgidl   = 0.0002
 +egidl   = 0.8             aigbacc = 0.012           bigbacc = 0.0028          cigbacc = 0.002
 +nigbacc = 1               aigbinv = 0.014           bigbinv = 0.004           cigbinv = 0.004
 +eigbinv = 1.1             nigbinv = 3               aigc    = 0.010687        bigc    = 0.0012607
 +cigc    = 0.0008          aigsd   = 0.010687        bigsd   = 0.0012607       cigsd   = 0.0008
 +nigc    = 1               poxedge = 1               pigcd   = 1               ntox    = 1
 +xrcrg1  = 12              xrcrg2  = 5

 +cgso    = 1e-010          cgdo    = 1e-010          cgbo    = 0               cgdl    = 3e-011
 +cgsl    = 3e-011          clc     = 1e-007          cle     = 0.6             cf      = 1.1e-010
 +ckappas = 0.6             ckappad = 0.6             vfbcv   = -1              acde    = 1
 +moin    = 15              noff    = 1               voffcv  = 0

 +kt1     = -0.14           kt1l    = 0               kt2     = 0.022           ute     = -1.1
 +ua1     = 1e-009          ub1     = -1e-018         uc1     = -5.6e-011       prt     = 0
 +at      = 33000

 +fnoimod = 1               tnoimod = 0               noia    = 6.25e+041       noib    = 3.125e+026
 +noic    = 8.75e+009       em      = 41000000        af      = 1               ef      = 1
 +kf      = 0               tnoia   = 1.5             tnoib   = 3.5             ntnoi   = 1

 +jss     = 2e-007          jsws    = 4e-013          jswgs   = 4e-013          njs     = 1
 +ijthsfwd= 0.1             ijthsrev= 0.1             bvs     = 10              xjbvs   = 1
 +jsd     = 2e-007          jswd    = 4e-013          jswgd   = 4e-013          xjbvd   = 1
 +pbs     = 1               cjs     = 0.0015          mjs     = 0.5             pbsws   = 1
 +cjsws   = 9.4e-011        mjsws   = 0.33            cjswgs  = 2e-010          cjd     = 0.0015
 +cjswd   = 9.4e-011        mjswd   = 0.33            pbswgd  = 1               cjswgd  = 2e-010
 +mjswgd  = 0.33            tpb     = 0               tcj     = 0               tpbsw   = 0
 +tcjsw   = 0               tpbswg  = 0               tcjswg  = 0               xtis    = 3

 +dmcg    = 0               dmdg    = 0               dmcgt   = 0               xgw     = 0
 +xgl     = 0

 +rshg    = 0.1             gbmin   = 1e-012          rbpb    = 50              rbpd    = 50
 +rbps    = 50              rbdb    = 50              rbsb    = 50              ngcon   = 1
          
 .include ../assets/spice_code/inv.sp
 * inverter subcircuit

 .subckt inv in out supply ground
 m1 out in supply supply pmos l=45n w=180n
 m2 out in ground ground nmos l=45n w=90n
 .ends inv
 .include ../assets/spice_code/nand.sp
 * nand gate subcircuit

 .subckt nand2 in1 in2 out supply ground
 mp1 out in1 supply supply pmos l=45n w=180n
 mp2 out in2 supply supply pmos l=45n w=180n
 mn1 out in1 nodo1 ground nmos l=45n w=180n
 mn2 nodo1 in2 ground ground nmos l=45n w=180n
 .ends nand2
 .include ../assets/spice_code/nor.sp
 * nor gate subcircuit

 .subckt nor2 in1 in2 out supply ground
 mp1 nodo1 in1 supply supply pmos l=45n w=360n
 mp2 out in2 nodo1 supply pmos l=45n w=360n
 mn1 out in1 ground ground nmos l=45n w=90n
 mn2 out in2 ground ground nmos l=45n w=90n
 .ends nor2
 .include ../assets/spice_code/xor.sp
 * xor gate subcircuit

 .subckt xor2 in1 in2 out supply ground
 xinv1 in1 in1_n supply ground inv
 xinv2 in2 in2_n supply ground inv
 mp1 nodo1 in1_n supply supply pmos l=45n w=360n
 mp2 out in2 nodo1 supply pmos l=45n w=360n
 mp3 nodo2 in1 supply supply pmos l=45n w=360n
 mp4 out in2_n nodo2 supply pmos l=45n w=360n
 mn1 out in2_n nodo3 ground nmos l=45n w=180n
 mn2 nodo3 in1_n ground ground nmos l=45n w=180n
 mn3 out in2 nodo4 ground nmos l=45n w=180n
 mn4 nodo4 in1 ground ground nmos l=45n w=180n
 .ends xor2
 .include ../assets/spice_code/and.sp
 * and gate subcircuit

 .subckt and2 in1 in2 out supply ground
 xnand1 in1 in2 nodo1 supply ground nand2
 xinv1 nodo1 out supply ground inv
 .ends and2
 .include ../assets/spice_code/or.sp
 * or gate subcircuit

 .subckt or2 in1 in2 out supply ground
 xnor1 in1 in2 nodo1 supply ground nor2
 xinv1 nodo1 out supply ground inv
 .ends or2
 .include ../assets/spice_code/fa.sp
 * full adder subcircuit

 .subckt fa cin in1 in2 cout soma supply ground
 xxor1 in1 in2 in1xorin2 supply ground xor2
 xxor2 in1xorin2 cin soma supply ground xor2
 xand1 in1xorin2 cin in1xorin2andcin supply ground and2
 xand2 in1 in2 in1andin2 supply ground and2
 xor1 in1xorin2andcin in1andin2 cout supply ground or2
 .ends fa


 vvdd supply gnd 0.9v
 xfulladder1 0 a0 b0 cout1 sum1 supply ground fa
 xfulladder2 cout1 a1 b1 cout2 sum2 supply ground fa
 xfulladder3 cout2 a2 b2 cout3 sum3 supply ground fa
 xfulladder4 cout3 a3 b3 cout4 sum4 supply ground fa
 xfulladder5 cout4 a4 b4 cout5 sum5 supply ground fa
 xfulladder6 cout5 a5 b5 cout6 sum6 supply ground fa
 xfulladder7 cout6 a6 b6 cout7 sum7 supply ground fa
 xfulladder8 cout7 a7 b7 cout8 sum8 supply ground fa

 * simulation settings
 va0 a0 ground pwl(0n 0 1n 0 1.01n 0.9)
 va1 a1 ground 0.9
 va2 a2 ground 0.9
 va3 a3 ground 0.9
 va4 a4 ground 0.9
 va5 a5 ground 0.9
 va6 a6 ground 0.9
 va7 a7 ground 0.9

 vb0 b0 ground 0.9
 vb1 b1 ground 0.0
 vb2 b2 ground 0.0
 vb3 b3 ground 0.0
 vb4 b4 ground 0.0
 vb5 b5 ground 0.0
 vb6 b6 ground 0.0
 vb7 b7 ground 0.0

 .measure tran critico trig v(a0) val=0.45 rise=1 targ v(cout8) val=0.45 rise=1
 .tran 2p 4n
 .end

 ***********************************************************************
 ** runlvl is invoked, you can disable it by:
      a) Add option runlvl=0 to your current simulation job.
      b) Copy $installdir/hspice.ini to your HOME directory and
         customize it by adding option runlvl=0, which disables
         it for all of your simulation jobs.
      c) Re-invoke $installdir/bin/config program and unselect the
         option runlvl setting in box 'hspice.ini' which disables
         it for whole group simulation jobs.

 ** runlvl is invoked, some options are ignored or automatically set:
      Options below are automatically set(user setting will overwrite them):
      if runlvl=6,            .option bypass=0
      if runlvl=[1|2|3|4|5],  .option bypass=2

      Options below are ignored, they are replaced by automated algorithms:
        lvltim    dvdt      ft    fast   trtol  absvar  relvar
          relq  chgtol    dvtr    imin    itl3    rmax

 ** runlvl is invoked, actual option value used by HSPICE are:
       runlvl= 3       bypass= 2      mbypass=   2.00   bytol= 100.00u
 ***********************************************************************

1****** HSPICE -- A-2008.03 32-BIT (Feb 26 2008) winnt ******                   
 ******  
 * top-level ripple carry adder                                                 
  ******  circuit name directory                                                
 ******  
 circuit number to circuit name directory
   number circuitname                     definition         multiplier
        0 main circuit
        1 xfulladder1.                    fa                 1.00 
        2 xfulladder2.                    fa                 1.00 
        3 xfulladder3.                    fa                 1.00 
        4 xfulladder4.                    fa                 1.00 
        5 xfulladder5.                    fa                 1.00 
        6 xfulladder6.                    fa                 1.00 
        7 xfulladder7.                    fa                 1.00 
        8 xfulladder8.                    fa                 1.00 
        9 xfulladder1.xxor1.              xor2               1.00 
       10 xfulladder1.xxor2.              xor2               1.00 
       11 xfulladder1.xand1.              and2               1.00 
       12 xfulladder1.xand2.              and2               1.00 
       13 xfulladder1.xor1.               or2                1.00 
       14 xfulladder2.xxor1.              xor2               1.00 
       15 xfulladder2.xxor2.              xor2               1.00 
       16 xfulladder2.xand1.              and2               1.00 
       17 xfulladder2.xand2.              and2               1.00 
       18 xfulladder2.xor1.               or2                1.00 
       19 xfulladder3.xxor1.              xor2               1.00 
       20 xfulladder3.xxor2.              xor2               1.00 
       21 xfulladder3.xand1.              and2               1.00 
       22 xfulladder3.xand2.              and2               1.00 
       23 xfulladder3.xor1.               or2                1.00 
       24 xfulladder4.xxor1.              xor2               1.00 
       25 xfulladder4.xxor2.              xor2               1.00 
       26 xfulladder4.xand1.              and2               1.00 
       27 xfulladder4.xand2.              and2               1.00 
       28 xfulladder4.xor1.               or2                1.00 
       29 xfulladder5.xxor1.              xor2               1.00 
       30 xfulladder5.xxor2.              xor2               1.00 
       31 xfulladder5.xand1.              and2               1.00 
       32 xfulladder5.xand2.              and2               1.00 
       33 xfulladder5.xor1.               or2                1.00 
       34 xfulladder6.xxor1.              xor2               1.00 
       35 xfulladder6.xxor2.              xor2               1.00 
       36 xfulladder6.xand1.              and2               1.00 
       37 xfulladder6.xand2.              and2               1.00 
       38 xfulladder6.xor1.               or2                1.00 
       39 xfulladder7.xxor1.              xor2               1.00 
       40 xfulladder7.xxor2.              xor2               1.00 
       41 xfulladder7.xand1.              and2               1.00 
       42 xfulladder7.xand2.              and2               1.00 
       43 xfulladder7.xor1.               or2                1.00 
       44 xfulladder8.xxor1.              xor2               1.00 
       45 xfulladder8.xxor2.              xor2               1.00 
       46 xfulladder8.xand1.              and2               1.00 
       47 xfulladder8.xand2.              and2               1.00 
       48 xfulladder8.xor1.               or2                1.00 
       49 xfulladder1.xxor1.xinv1.        inv                1.00 
       50 xfulladder1.xxor1.xinv2.        inv                1.00 
       51 xfulladder1.xxor2.xinv1.        inv                1.00 
       52 xfulladder1.xxor2.xinv2.        inv                1.00 
       53 xfulladder1.xand1.xnand1.       nand2              1.00 
       54 xfulladder1.xand1.xinv1.        inv                1.00 
       55 xfulladder1.xand2.xnand1.       nand2              1.00 
       56 xfulladder1.xand2.xinv1.        inv                1.00 
       57 xfulladder1.xor1.xnor1.         nor2               1.00 
       58 xfulladder1.xor1.xinv1.         inv                1.00 
       59 xfulladder2.xxor1.xinv1.        inv                1.00 
       60 xfulladder2.xxor1.xinv2.        inv                1.00 
       61 xfulladder2.xxor2.xinv1.        inv                1.00 
       62 xfulladder2.xxor2.xinv2.        inv                1.00 
       63 xfulladder2.xand1.xnand1.       nand2              1.00 
       64 xfulladder2.xand1.xinv1.        inv                1.00 
       65 xfulladder2.xand2.xnand1.       nand2              1.00 
       66 xfulladder2.xand2.xinv1.        inv                1.00 
       67 xfulladder2.xor1.xnor1.         nor2               1.00 
       68 xfulladder2.xor1.xinv1.         inv                1.00 
       69 xfulladder3.xxor1.xinv1.        inv                1.00 
       70 xfulladder3.xxor1.xinv2.        inv                1.00 
       71 xfulladder3.xxor2.xinv1.        inv                1.00 
       72 xfulladder3.xxor2.xinv2.        inv                1.00 
       73 xfulladder3.xand1.xnand1.       nand2              1.00 
       74 xfulladder3.xand1.xinv1.        inv                1.00 
       75 xfulladder3.xand2.xnand1.       nand2              1.00 
       76 xfulladder3.xand2.xinv1.        inv                1.00 
       77 xfulladder3.xor1.xnor1.         nor2               1.00 
       78 xfulladder3.xor1.xinv1.         inv                1.00 
       79 xfulladder4.xxor1.xinv1.        inv                1.00 
       80 xfulladder4.xxor1.xinv2.        inv                1.00 
       81 xfulladder4.xxor2.xinv1.        inv                1.00 
       82 xfulladder4.xxor2.xinv2.        inv                1.00 
       83 xfulladder4.xand1.xnand1.       nand2              1.00 
       84 xfulladder4.xand1.xinv1.        inv                1.00 
       85 xfulladder4.xand2.xnand1.       nand2              1.00 
       86 xfulladder4.xand2.xinv1.        inv                1.00 
       87 xfulladder4.xor1.xnor1.         nor2               1.00 
       88 xfulladder4.xor1.xinv1.         inv                1.00 
       89 xfulladder5.xxor1.xinv1.        inv                1.00 
       90 xfulladder5.xxor1.xinv2.        inv                1.00 
       91 xfulladder5.xxor2.xinv1.        inv                1.00 
       92 xfulladder5.xxor2.xinv2.        inv                1.00 
       93 xfulladder5.xand1.xnand1.       nand2              1.00 
       94 xfulladder5.xand1.xinv1.        inv                1.00 
       95 xfulladder5.xand2.xnand1.       nand2              1.00 
       96 xfulladder5.xand2.xinv1.        inv                1.00 
       97 xfulladder5.xor1.xnor1.         nor2               1.00 
       98 xfulladder5.xor1.xinv1.         inv                1.00 
       99 xfulladder6.xxor1.xinv1.        inv                1.00 
      100 xfulladder6.xxor1.xinv2.        inv                1.00 
      101 xfulladder6.xxor2.xinv1.        inv                1.00 
      102 xfulladder6.xxor2.xinv2.        inv                1.00 
      103 xfulladder6.xand1.xnand1.       nand2              1.00 
      104 xfulladder6.xand1.xinv1.        inv                1.00 
      105 xfulladder6.xand2.xnand1.       nand2              1.00 
      106 xfulladder6.xand2.xinv1.        inv                1.00 
      107 xfulladder6.xor1.xnor1.         nor2               1.00 
      108 xfulladder6.xor1.xinv1.         inv                1.00 
      109 xfulladder7.xxor1.xinv1.        inv                1.00 
      110 xfulladder7.xxor1.xinv2.        inv                1.00 
      111 xfulladder7.xxor2.xinv1.        inv                1.00 
      112 xfulladder7.xxor2.xinv2.        inv                1.00 
      113 xfulladder7.xand1.xnand1.       nand2              1.00 
      114 xfulladder7.xand1.xinv1.        inv                1.00 
      115 xfulladder7.xand2.xnand1.       nand2              1.00 
      116 xfulladder7.xand2.xinv1.        inv                1.00 
      117 xfulladder7.xor1.xnor1.         nor2               1.00 
      118 xfulladder7.xor1.xinv1.         inv                1.00 
      119 xfulladder8.xxor1.xinv1.        inv                1.00 
      120 xfulladder8.xxor1.xinv2.        inv                1.00 
      121 xfulladder8.xxor2.xinv1.        inv                1.00 
      122 xfulladder8.xxor2.xinv2.        inv                1.00 
      123 xfulladder8.xand1.xnand1.       nand2              1.00 
      124 xfulladder8.xand1.xinv1.        inv                1.00 
      125 xfulladder8.xand2.xnand1.       nand2              1.00 
      126 xfulladder8.xand2.xinv1.        inv                1.00 
      127 xfulladder8.xor1.xnor1.         nor2               1.00 
      128 xfulladder8.xor1.xinv1.         inv                1.00 
1****** HSPICE -- A-2008.03 32-BIT (Feb 26 2008) winnt ******                   
 ******  
 * top-level ripple carry adder                                                 
  ******  mos   model parameters           tnom=  25.000 temp=  25.000          
 ******  
 
Model Name: nmos  

 BSIM4 Model (Level 54)

    MOBMOD = 0
    BINUNIT = 1
    PARAMCHK = 1
    CAPMOD = 2
    DIOMOD = 1
    RDSMOD = 0
    TRNQSMOD = 0
    ACNQSMOD = 0
    RBODYMOD = 1
    RGATEMOD = 1
    PERMOD = 1
    GEOMOD = 1
    RGEOMOD = 0
    FNOIMOD = 1
    TNOIMOD = 0
    IGCMOD = 1
    IGBMOD = 1
    STIMOD = 0
    VERSION =      4 
    TOXREF = 9e-010 
    TOXE = 9e-010 
    TOXP = 6.5e-010 
    TOXM = 9e-010 
    DTOX = 2.5e-010 
    EPSROX =    3.9 
    CDSC =      0 
    CDSCB =      0 
    CDSCD =      0 
    CIT =      0 
    NFACTOR =    1.9 
    XJ = 1.4e-008 
    VSAT = 1.596e+005 
    A0 =      1 
    AGS =      0 
    A1 =      0 
    A2 =      1 
    AT = 3.3e+004 
    KETA =   0.04 
    NSUB = 6e+016 
    NDEP = 6.5e+018 
    NSD = 2e+020 
    NGATE = 1e+023 
    GAMMA1 =      0 
    GAMMA2 =      0 
    VBX =      0 
    VBM =     -3 
    XT = 1.55e-007 
    K1 =    0.2 
    KT1 = -0.154 
    KT1L =      0 
    KT2 =  0.022 
    K2 =      0 
    K3 =      0 
    K3B =      0 
    LPE0 =      0 
    LPEB =      0 
    DVTP0 = 1e-010 
    DVTP1 =    0.1 
    W0 = 2.5e-006 
    DVT0 =      1 
    DVT1 =      2 
    DVT2 =      0 
    DVT0W =      0 
    DVT1W =      0 
    DVT2W =      0 
    DROUT =    0.5 
    DSUB =  0.078 
    VTH0 = 0.3423 
    EU =   1.67 
    UA = -5e-010 
    UA1 = 1e-009 
    UB = 1.7e-018 
    UB1 = -1e-018 
    UC =      0 
    UC1 = -5.6e-011 
    U0 = 0.02947 
    UTE =   -1.1 
    VOFF =  -0.13 
    VOFFL =      0 
    MINV =   0.05 
    FPROUT =    0.2 
    PDITS =   0.01 
    PDITSD =   0.23 
    PDITSL = 2.3e+006 
    DELTA =   0.01 
    RDSW =    105 
    RDSWMIN =      0 
    RDWMIN =      0 
    RSWMIN =      0 
    RDW =   52.5 
    RSW =   52.5 
    PRWG =      0 
    PRWB =      0 
    PRT =      0 
    ETA0 = 0.0055 
    ETAB =      0 
    PCLM =   0.06 
    PDIBLC1 =  0.001 
    PDIBLC2 =  0.001 
    PDIBLCB = -0.005 
    PSCBE1 = 2e+009 
    PSCBE2 = 1e-007 
    PVAG = 1e-020 
    WR =      1 
    DWG =      0 
    DWB =      0 
    XW =      0 
    XWREF =      0 
    XL = -2e-008 
    XLREF = -2e-008 
    B0 =      0 
    B1 =      0 
    ALPHA0 =  0.074 
    ALPHA1 =  0.005 
    AGIDL = 0.0002 
    BGIDL = 2.1e+009 
    CGIDL = 0.0002 
    PHIN =      0 
    EGIDL =    0.8 
    AIGC = 0.01803 
    BIGC = 0.0029 
    CIGC =  0.002 
    AIGSD = 0.01803 
    BIGSD = 0.0029 
    CIGSD =  0.002 
    AIGBACC =  0.012 
    BIGBACC = 0.0028 
    CIGBACC =  0.002 
    AIGBINV =  0.014 
    BIGBINV =  0.004 
    CIGBINV =  0.004 
    NIGC =      1 
    NIGBINV =      3 
    NIGBACC =      1 
    NTOX =      1 
    EIGBINV =    1.1 
    PIGCD =      1 
    POXEDGE =      1 
    XRCRG1 =     12 
    TNOIA =    1.5 
    TNOIB =    3.5 
    NTNOI =      1 
    XRCRG2 =      5 
    BETA0 =     30 
    IJTHDFWD =    0.1 
    IJTHSFWD =    0.1 
    IJTHDREV =    0.1 
    IJTHSREV =    0.1 
    XJBVD =      1 
    XJBVS =      1 
    BVD =     10 
    BVS =     10 
    VFB = -1.058 
    GBMIN = 1e-010 
    RBDB =     15 
    RBPB =      5 
    RBSB =     15 
    RBPS =     15 
    RBPD =     15 
    CGSL = 7.5e-013 
    CGDL = 7.5e-013 
    CKAPPAS =    0.6 
    CKAPPAD =    0.6 
    CF = 1.1e-010 
    CLC = 1e-007 
    CLE =    0.6 
    DWC = 5e-009 
    DLC = 2.7e-009 
    DLCIG = 2.7e-009 
    DWJ =      0 
    VFBCV =     -1 
    ACDE =      1 
    MOIN =     15 
    NOFF =      1 
    VOFFCV =      0 
    DMCG =      0 
    DMCI =      0 
    DMDG =      0 
    DMCGT =      0 
    XGW =      0 
    XGL =      0 
    RSHG =    0.4 
    NGCON =      1 
    TCJ =      0 
    TPB =      0 
    TCJSW =      0 
    TPBSW =      0 
    TCJSWG =      0 
    TPBSWG =      0 
    SK0 =      0 
    SK1 =      0 
    SK2 =      0 
    SL = 2e-006 
    SW = 2e-006 
    K =      0 
    TNOM =  300.1 
    CGSO = 1e-010 
    CGDO = 1e-010 
    CGBO =      0 
    XPART =      0 
    RSH =      5 
    JSS = 1.2e-006 
    JSWS = 2.4e-013 
    JSWGS = 2.4e-013 
    PBS =      1 
    MJS =    0.5 
    PBSWS =      1 
    MJSWS =   0.33 
    CJS = 0.0018 
    CJSWS = 1.2e-010 
    NJS =      1 
    PBSWGS =      1 
    MJSWGS =   0.33 
    CJSWGS = 2.1e-010 
    XTIS =      3 
    JSD = 1.2e-006 
    JSWD = 2.4e-013 
    JSWGD = 2.4e-013 
    PBD =      1 
    MJD =    0.5 
    PBSWD =      1 
    MJSWD =   0.33 
    CJD = 0.0018 
    CJSWD = 1.2e-010 
    NJD =      1 
    PBSWGD =      1 
    MJSWGD =   0.33 
    CJSWGD = 2.1e-010 
    XTID =      3 
    LMLT =      1 
    WMLT =      1 
    LINT = 2.7e-009 
    LL =      0 
    LLC =      0 
    LLN =      1 
    LW =      0 
    LWC =      0 
    LWN =      1 
    LWL =      0 
    LWLC =      0 
    LMIN =      0 
    LMAX =      1 
    WINT = 5e-009 
    WL =      0 
    WLC =      0 
    WLN =      1 
    WW =      0 
    WWC =      0 
    WWN =      1 
    WWL =      0 
    WWLC =      0 
    WMIN =      0 
    WMAX =      1 
    NOIA = 6.25e+041 
    NOIB = 3.125e+026 
    NOIC = 8.75e+009 
    EM = 4.1e+007 
    EF =      1 
    AF =      1 
    KF =      0 
    TRS =      0 
    TRD =      0 
 

 
Model Name: pmos  

 BSIM4 Model (Level 54)

    MOBMOD = 0
    BINUNIT = 1
    PARAMCHK = 1
    CAPMOD = 2
    DIOMOD = 1
    RDSMOD = 0
    TRNQSMOD = 0
    ACNQSMOD = 0
    RBODYMOD = 1
    RGATEMOD = 1
    PERMOD = 1
    GEOMOD = 1
    RGEOMOD = 0
    FNOIMOD = 1
    TNOIMOD = 0
    IGCMOD = 1
    IGBMOD = 1
    STIMOD = 0
    VERSION =      4 
    TOXREF = 9.2e-010 
    TOXE = 9.2e-010 
    TOXP = 6.5e-010 
    TOXM = 9.2e-010 
    DTOX = 2.7e-010 
    EPSROX =    3.9 
    CDSC =      0 
    CDSCB =      0 
    CDSCD =      0 
    CIT =      0 
    NFACTOR =    1.9 
    XJ = 1.4e-008 
    VSAT = 7.8e+004 
    A0 =      1 
    AGS = 1e-020 
    A1 =      0 
    A2 =      1 
    AT = 3.3e+004 
    KETA = -0.047 
    NSUB = 6e+016 
    NDEP = 2.8e+018 
    NSD = 2e+020 
    NGATE = 1e+023 
    GAMMA1 =      0 
    GAMMA2 =      0 
    VBX =      0 
    VBM =     -3 
    XT = 1.55e-007 
    K1 =    0.2 
    KT1 =  -0.14 
    KT1L =      0 
    KT2 =  0.022 
    K2 =  -0.01 
    K3 =      0 
    K3B =      0 
    LPE0 =      0 
    LPEB =      0 
    DVTP0 = 1e-011 
    DVTP1 =   0.05 
    W0 = 2.5e-006 
    DVT0 =      1 
    DVT1 =      2 
    DVT2 = -0.032 
    DVT0W =      0 
    DVT1W =      0 
    DVT2W =      0 
    DROUT =    0.6 
    DSUB =    0.1 
    VTH0 = -0.2312 
    EU =      1 
    UA = -5e-010 
    UA1 = 1e-009 
    UB = 1.6e-018 
    UB1 = -1e-018 
    UC =      0 
    UC1 = -5.6e-011 
    U0 = 0.00391 
    UTE =   -1.1 
    VOFF =  -0.13 
    VOFFL =      0 
    MINV =   0.05 
    FPROUT =    0.2 
    PDITS =   0.08 
    PDITSD =   0.23 
    PDITSL = 2.3e+006 
    DELTA =   0.01 
    RDSW =    105 
    RDSWMIN =      0 
    RDWMIN =      0 
    RSWMIN =      0 
    RDW =   52.5 
    RSW =   52.5 
    PRWG =      0 
    PRWB =      0 
    PRT =      0 
    ETA0 = 0.0049 
    ETAB =      0 
    PCLM =    0.1 
    PDIBLC1 =  0.001 
    PDIBLC2 =  0.001 
    PDIBLCB = 3.4e-008 
    PSCBE1 = 2e+009 
    PSCBE2 = 9.58e-007 
    PVAG = 1e-020 
    WR =      1 
    DWG =      0 
    DWB =      0 
    XW =      0 
    XWREF =      0 
    XL = -2e-008 
    XLREF = -2e-008 
    B0 =      0 
    B1 =      0 
    ALPHA0 =  0.074 
    ALPHA1 =  0.005 
    AGIDL = 0.0002 
    BGIDL = 2.1e+009 
    CGIDL = 0.0002 
    PHIN =      0 
    EGIDL =    0.8 
    AIGC = 0.01069 
    BIGC = 0.001261 
    CIGC = 0.0008 
    AIGSD = 0.01069 
    BIGSD = 0.001261 
    CIGSD = 0.0008 
    AIGBACC =  0.012 
    BIGBACC = 0.0028 
    CIGBACC =  0.002 
    AIGBINV =  0.014 
    BIGBINV =  0.004 
    CIGBINV =  0.004 
    NIGC =      1 
    NIGBINV =      3 
    NIGBACC =      1 
    NTOX =      1 
    EIGBINV =    1.1 
    PIGCD =      1 
    POXEDGE =      1 
    XRCRG1 =     12 
    TNOIA =    1.5 
    TNOIB =    3.5 
    NTNOI =      1 
    XRCRG2 =      5 
    BETA0 =     30 
    IJTHDFWD =    0.1 
    IJTHSFWD =    0.1 
    IJTHDREV =    0.1 
    IJTHSREV =    0.1 
    XJBVD =      1 
    XJBVS =      1 
    BVD =     10 
    BVS =     10 
    VFB = -1.058 
    GBMIN = 1e-012 
    RBDB =     50 
    RBPB =     50 
    RBSB =     50 
    RBPS =     50 
    RBPD =     50 
    CGSL = 3e-011 
    CGDL = 3e-011 
    CKAPPAS =    0.6 
    CKAPPAD =    0.6 
    CF = 1.1e-010 
    CLC = 1e-007 
    CLE =    0.6 
    DWC = 5e-009 
    DLC = 2.7e-009 
    DLCIG = 2.7e-009 
    DWJ = 5e-009 
    VFBCV =     -1 
    ACDE =      1 
    MOIN =     15 
    NOFF =      1 
    VOFFCV =      0 
    DMCG =      0 
    DMCI =      0 
    DMDG =      0 
    DMCGT =      0 
    XGW =      0 
    XGL =      0 
    RSHG =    0.1 
    NGCON =      1 
    TCJ =      0 
    TPB =      0 
    TCJSW =      0 
    TPBSW =      0 
    TCJSWG =      0 
    TPBSWG =      0 
    SK0 =      0 
    SK1 =      0 
    SK2 =      0 
    SL = 2e-006 
    SW = 2e-006 
    K =      0 
    TNOM =  300.1 
    CGSO = 1e-010 
    CGDO = 1e-010 
    CGBO =      0 
    XPART =      0 
    RSH =      5 
    JSS = 2e-007 
    JSWS = 4e-013 
    JSWGS = 4e-013 
    PBS =      1 
    MJS =    0.5 
    PBSWS =      1 
    MJSWS =   0.33 
    CJS = 0.0015 
    CJSWS = 9.4e-011 
    NJS =      1 
    PBSWGS =      1 
    MJSWGS =   0.33 
    CJSWGS = 2e-010 
    XTIS =      3 
    JSD = 2e-007 
    JSWD = 4e-013 
    JSWGD = 4e-013 
    PBD =      1 
    MJD =    0.5 
    PBSWD =      1 
    MJSWD =   0.33 
    CJD = 0.0015 
    CJSWD = 9.4e-011 
    NJD =      1 
    PBSWGD =      1 
    MJSWGD =   0.33 
    CJSWGD = 2e-010 
    XTID =      3 
    LMLT =      1 
    WMLT =      1 
    LINT = 2.7e-009 
    LL =      0 
    LLC =      0 
    LLN =      1 
    LW =      0 
    LWC =      0 
    LWN =      1 
    LWL =      0 
    LWLC =      0 
    LMIN =      0 
    LMAX =      1 
    WINT = 5e-009 
    WL =      0 
    WLC =      0 
    WLN =      1 
    WW =      0 
    WWC =      0 
    WWN =      1 
    WWL =      0 
    WWLC =      0 
    WMIN =      0 
    WMAX =      1 
    NOIA = 6.25e+041 
    NOIB = 3.125e+026 
    NOIC = 8.75e+009 
    EM = 4.1e+007 
    EF =      1 
    AF =      1 
    KF =      0 
    TRS =      0 
    TRD =      0 
 


 **warning** dc voltage reset to initial transient source value
             in source        0:va0                 new dc=  0.0000D+00

 Warning:  Acde = 1 may be too small in BSIM4 model nmos with w=1.8e-007 l=4.5e-008.

 Warning:  Acde = 1 may be too small in BSIM4 model nmos with w=1.8e-007 l=4.5e-008.

 Warning:  Acde = 1 may be too small in BSIM4 model nmos with w=1.8e-007 l=4.5e-008.

 Warning:  Acde = 1 may be too small in BSIM4 model nmos with w=1.8e-007 l=4.5e-008.

 Warning:  Acde = 1 may be too small in BSIM4 model nmos with w=1.8e-007 l=4.5e-008.

 Warning:  Acde = 1 may be too small in BSIM4 model nmos with w=1.8e-007 l=4.5e-008.

 Warning:  Acde = 1 may be too small in BSIM4 model nmos with w=1.8e-007 l=4.5e-008.

 Warning:  Acde = 1 may be too small in BSIM4 model nmos with w=1.8e-007 l=4.5e-008.

 Warning:  Acde = 1 may be too small in BSIM4 model nmos with w=1.8e-007 l=4.5e-008.

 Warning:  Acde = 1 may be too small in BSIM4 model nmos with w=1.8e-007 l=4.5e-008.

 Warning:  Acde = 1 may be too small in BSIM4 model nmos with w=1.8e-007 l=4.5e-008.

 Warning:  Acde = 1 may be too small in BSIM4 model nmos with w=1.8e-007 l=4.5e-008.

 Warning:  Acde = 1 may be too small in BSIM4 model nmos with w=1.8e-007 l=4.5e-008.

 Warning:  Acde = 1 may be too small in BSIM4 model nmos with w=1.8e-007 l=4.5e-008.

 Warning:  Acde = 1 may be too small in BSIM4 model nmos with w=1.8e-007 l=4.5e-008.

 Warning:  Acde = 1 may be too small in BSIM4 model nmos with w=1.8e-007 l=4.5e-008.

 Warning:  Acde = 1 may be too small in BSIM4 model nmos with w=1.8e-007 l=4.5e-008.

 Warning:  Acde = 1 may be too small in BSIM4 model nmos with w=1.8e-007 l=4.5e-008.

 Warning:  Acde = 1 may be too small in BSIM4 model nmos with w=1.8e-007 l=4.5e-008.

 Warning:  Acde = 1 may be too small in BSIM4 model nmos with w=1.8e-007 l=4.5e-008.

 Warning:  Acde = 1 may be too small in BSIM4 model nmos with w=1.8e-007 l=4.5e-008.

 Warning:  Acde = 1 may be too small in BSIM4 model nmos with w=1.8e-007 l=4.5e-008.

 Warning:  Acde = 1 may be too small in BSIM4 model nmos with w=1.8e-007 l=4.5e-008.

 Warning:  Acde = 1 may be too small in BSIM4 model nmos with w=1.8e-007 l=4.5e-008.

 Warning:  Acde = 1 may be too small in BSIM4 model nmos with w=1.8e-007 l=4.5e-008.

 Warning:  Acde = 1 may be too small in BSIM4 model nmos with w=1.8e-007 l=4.5e-008.

 Warning:  Acde = 1 may be too small in BSIM4 model nmos with w=1.8e-007 l=4.5e-008.

 Warning:  Acde = 1 may be too small in BSIM4 model nmos with w=1.8e-007 l=4.5e-008.

 Warning:  Acde = 1 may be too small in BSIM4 model nmos with w=1.8e-007 l=4.5e-008.

 Warning:  Acde = 1 may be too small in BSIM4 model nmos with w=1.8e-007 l=4.5e-008.

 Warning:  Acde = 1 may be too small in BSIM4 model nmos with w=1.8e-007 l=4.5e-008.

 Warning:  Acde = 1 may be too small in BSIM4 model nmos with w=1.8e-007 l=4.5e-008.

 Warning:  Acde = 1 may be too small in BSIM4 model nmos with w=1.8e-007 l=4.5e-008.

 Warning:  Acde = 1 may be too small in BSIM4 model nmos with w=1.8e-007 l=4.5e-008.

 Warning:  Acde = 1 may be too small in BSIM4 model nmos with w=1.8e-007 l=4.5e-008.

 Warning:  Acde = 1 may be too small in BSIM4 model nmos with w=1.8e-007 l=4.5e-008.

 Warning:  Acde = 1 may be too small in BSIM4 model nmos with w=1.8e-007 l=4.5e-008.

 Warning:  Acde = 1 may be too small in BSIM4 model nmos with w=1.8e-007 l=4.5e-008.

 Warning:  Acde = 1 may be too small in BSIM4 model nmos with w=1.8e-007 l=4.5e-008.

 Warning:  Acde = 1 may be too small in BSIM4 model nmos with w=1.8e-007 l=4.5e-008.

 Warning:  Acde = 1 may be too small in BSIM4 model nmos with w=1.8e-007 l=4.5e-008.

 Warning:  Acde = 1 may be too small in BSIM4 model nmos with w=1.8e-007 l=4.5e-008.

 Warning:  Acde = 1 may be too small in BSIM4 model nmos with w=1.8e-007 l=4.5e-008.

 Warning:  Acde = 1 may be too small in BSIM4 model nmos with w=1.8e-007 l=4.5e-008.

 Warning:  Acde = 1 may be too small in BSIM4 model nmos with w=1.8e-007 l=4.5e-008.

 Warning:  Acde = 1 may be too small in BSIM4 model nmos with w=1.8e-007 l=4.5e-008.

 Warning:  Acde = 1 may be too small in BSIM4 model nmos with w=1.8e-007 l=4.5e-008.

 Warning:  Acde = 1 may be too small in BSIM4 model nmos with w=1.8e-007 l=4.5e-008.

 Warning:  Acde = 1 may be too small in BSIM4 model nmos with w=1.8e-007 l=4.5e-008.

 Warning:  Acde = 1 may be too small in BSIM4 model nmos with w=1.8e-007 l=4.5e-008.

 Warning:  Acde = 1 may be too small in BSIM4 model nmos with w=1.8e-007 l=4.5e-008.

 Warning:  Acde = 1 may be too small in BSIM4 model nmos with w=1.8e-007 l=4.5e-008.

 Warning:  Acde = 1 may be too small in BSIM4 model nmos with w=1.8e-007 l=4.5e-008.

 Warning:  Acde = 1 may be too small in BSIM4 model nmos with w=1.8e-007 l=4.5e-008.

 Warning:  Acde = 1 may be too small in BSIM4 model nmos with w=1.8e-007 l=4.5e-008.

 Warning:  Acde = 1 may be too small in BSIM4 model nmos with w=1.8e-007 l=4.5e-008.

 Warning:  Acde = 1 may be too small in BSIM4 model nmos with w=1.8e-007 l=4.5e-008.

 Warning:  Acde = 1 may be too small in BSIM4 model nmos with w=1.8e-007 l=4.5e-008.

 Warning:  Acde = 1 may be too small in BSIM4 model nmos with w=1.8e-007 l=4.5e-008.

 Warning:  Acde = 1 may be too small in BSIM4 model nmos with w=1.8e-007 l=4.5e-008.

 Warning:  Acde = 1 may be too small in BSIM4 model nmos with w=1.8e-007 l=4.5e-008.

 Warning:  Acde = 1 may be too small in BSIM4 model nmos with w=1.8e-007 l=4.5e-008.

 Warning:  Acde = 1 may be too small in BSIM4 model nmos with w=1.8e-007 l=4.5e-008.

 Warning:  Acde = 1 may be too small in BSIM4 model nmos with w=1.8e-007 l=4.5e-008.

 Warning:  Acde = 1 may be too small in BSIM4 model nmos with w=9e-008 l=4.5e-008.

 Warning: (B1 + Weff) may be too small in BSIM4 model nmos with w=9e-008 l=4.5e-008.

 Warning:  Acde = 1 may be too small in BSIM4 model nmos with w=9e-008 l=4.5e-008.

 Warning: (B1 + Weff) may be too small in BSIM4 model nmos with w=9e-008 l=4.5e-008.

 Warning:  Acde = 1 may be too small in BSIM4 model nmos with w=9e-008 l=4.5e-008.

 Warning: (B1 + Weff) may be too small in BSIM4 model nmos with w=9e-008 l=4.5e-008.

 Warning:  Acde = 1 may be too small in BSIM4 model nmos with w=9e-008 l=4.5e-008.

 Warning: (B1 + Weff) may be too small in BSIM4 model nmos with w=9e-008 l=4.5e-008.

 Warning:  Acde = 1 may be too small in BSIM4 model nmos with w=1.8e-007 l=4.5e-008.

 Warning:  Acde = 1 may be too small in BSIM4 model nmos with w=1.8e-007 l=4.5e-008.

 Warning:  Acde = 1 may be too small in BSIM4 model nmos with w=9e-008 l=4.5e-008.

 Warning: (B1 + Weff) may be too small in BSIM4 model nmos with w=9e-008 l=4.5e-008.

 Warning:  Acde = 1 may be too small in BSIM4 model nmos with w=1.8e-007 l=4.5e-008.

 Warning:  Acde = 1 may be too small in BSIM4 model nmos with w=1.8e-007 l=4.5e-008.

 Warning:  Acde = 1 may be too small in BSIM4 model nmos with w=9e-008 l=4.5e-008.

 Warning: (B1 + Weff) may be too small in BSIM4 model nmos with w=9e-008 l=4.5e-008.

 Warning:  Acde = 1 may be too small in BSIM4 model nmos with w=9e-008 l=4.5e-008.

 Warning: (B1 + Weff) may be too small in BSIM4 model nmos with w=9e-008 l=4.5e-008.

 Warning:  Acde = 1 may be too small in BSIM4 model nmos with w=9e-008 l=4.5e-008.

 Warning: (B1 + Weff) may be too small in BSIM4 model nmos with w=9e-008 l=4.5e-008.

 Warning:  Acde = 1 may be too small in BSIM4 model nmos with w=9e-008 l=4.5e-008.

 Warning: (B1 + Weff) may be too small in BSIM4 model nmos with w=9e-008 l=4.5e-008.

 Warning:  Acde = 1 may be too small in BSIM4 model nmos with w=9e-008 l=4.5e-008.

 Warning: (B1 + Weff) may be too small in BSIM4 model nmos with w=9e-008 l=4.5e-008.

 Warning:  Acde = 1 may be too small in BSIM4 model nmos with w=9e-008 l=4.5e-008.

 Warning: (B1 + Weff) may be too small in BSIM4 model nmos with w=9e-008 l=4.5e-008.

 Warning:  Acde = 1 may be too small in BSIM4 model nmos with w=9e-008 l=4.5e-008.

 Warning: (B1 + Weff) may be too small in BSIM4 model nmos with w=9e-008 l=4.5e-008.

 Warning:  Acde = 1 may be too small in BSIM4 model nmos with w=9e-008 l=4.5e-008.

 Warning: (B1 + Weff) may be too small in BSIM4 model nmos with w=9e-008 l=4.5e-008.

 Warning:  Acde = 1 may be too small in BSIM4 model nmos with w=1.8e-007 l=4.5e-008.

 Warning:  Acde = 1 may be too small in BSIM4 model nmos with w=1.8e-007 l=4.5e-008.

 Warning:  Acde = 1 may be too small in BSIM4 model nmos with w=9e-008 l=4.5e-008.

 Warning: (B1 + Weff) may be too small in BSIM4 model nmos with w=9e-008 l=4.5e-008.

 Warning:  Acde = 1 may be too small in BSIM4 model nmos with w=1.8e-007 l=4.5e-008.

 Warning:  Acde = 1 may be too small in BSIM4 model nmos with w=1.8e-007 l=4.5e-008.

 Warning:  Acde = 1 may be too small in BSIM4 model nmos with w=9e-008 l=4.5e-008.

 Warning: (B1 + Weff) may be too small in BSIM4 model nmos with w=9e-008 l=4.5e-008.

 Warning:  Acde = 1 may be too small in BSIM4 model nmos with w=9e-008 l=4.5e-008.

 Warning: (B1 + Weff) may be too small in BSIM4 model nmos with w=9e-008 l=4.5e-008.

 Warning:  Acde = 1 may be too small in BSIM4 model nmos with w=9e-008 l=4.5e-008.

 Warning: (B1 + Weff) may be too small in BSIM4 model nmos with w=9e-008 l=4.5e-008.

 Warning:  Acde = 1 may be too small in BSIM4 model nmos with w=9e-008 l=4.5e-008.

 Warning: (B1 + Weff) may be too small in BSIM4 model nmos with w=9e-008 l=4.5e-008.

 Warning:  Acde = 1 may be too small in BSIM4 model nmos with w=9e-008 l=4.5e-008.

 Warning: (B1 + Weff) may be too small in BSIM4 model nmos with w=9e-008 l=4.5e-008.

 Warning:  Acde = 1 may be too small in BSIM4 model nmos with w=9e-008 l=4.5e-008.

 Warning: (B1 + Weff) may be too small in BSIM4 model nmos with w=9e-008 l=4.5e-008.

 Warning:  Acde = 1 may be too small in BSIM4 model nmos with w=9e-008 l=4.5e-008.

 Warning: (B1 + Weff) may be too small in BSIM4 model nmos with w=9e-008 l=4.5e-008.

 Warning:  Acde = 1 may be too small in BSIM4 model nmos with w=9e-008 l=4.5e-008.

 Warning: (B1 + Weff) may be too small in BSIM4 model nmos with w=9e-008 l=4.5e-008.

 Warning:  Acde = 1 may be too small in BSIM4 model nmos with w=1.8e-007 l=4.5e-008.

 Warning:  Acde = 1 may be too small in BSIM4 model nmos with w=1.8e-007 l=4.5e-008.

 Warning:  Acde = 1 may be too small in BSIM4 model nmos with w=9e-008 l=4.5e-008.

 Warning: (B1 + Weff) may be too small in BSIM4 model nmos with w=9e-008 l=4.5e-008.

 Warning:  Acde = 1 may be too small in BSIM4 model nmos with w=1.8e-007 l=4.5e-008.

 Warning:  Acde = 1 may be too small in BSIM4 model nmos with w=1.8e-007 l=4.5e-008.

 Warning:  Acde = 1 may be too small in BSIM4 model nmos with w=9e-008 l=4.5e-008.

 Warning: (B1 + Weff) may be too small in BSIM4 model nmos with w=9e-008 l=4.5e-008.

 Warning:  Acde = 1 may be too small in BSIM4 model nmos with w=9e-008 l=4.5e-008.

 Warning: (B1 + Weff) may be too small in BSIM4 model nmos with w=9e-008 l=4.5e-008.

 Warning:  Acde = 1 may be too small in BSIM4 model nmos with w=9e-008 l=4.5e-008.

 Warning: (B1 + Weff) may be too small in BSIM4 model nmos with w=9e-008 l=4.5e-008.

 Warning:  Acde = 1 may be too small in BSIM4 model nmos with w=9e-008 l=4.5e-008.

 Warning: (B1 + Weff) may be too small in BSIM4 model nmos with w=9e-008 l=4.5e-008.

 Warning:  Acde = 1 may be too small in BSIM4 model nmos with w=9e-008 l=4.5e-008.

 Warning: (B1 + Weff) may be too small in BSIM4 model nmos with w=9e-008 l=4.5e-008.

 Warning:  Acde = 1 may be too small in BSIM4 model nmos with w=9e-008 l=4.5e-008.

 Warning: (B1 + Weff) may be too small in BSIM4 model nmos with w=9e-008 l=4.5e-008.

 Warning:  Acde = 1 may be too small in BSIM4 model nmos with w=9e-008 l=4.5e-008.

 Warning: (B1 + Weff) may be too small in BSIM4 model nmos with w=9e-008 l=4.5e-008.

 Warning:  Acde = 1 may be too small in BSIM4 model nmos with w=9e-008 l=4.5e-008.

 Warning: (B1 + Weff) may be too small in BSIM4 model nmos with w=9e-008 l=4.5e-008.

 Warning:  Acde = 1 may be too small in BSIM4 model nmos with w=1.8e-007 l=4.5e-008.

 Warning:  Acde = 1 may be too small in BSIM4 model nmos with w=1.8e-007 l=4.5e-008.

 Warning:  Acde = 1 may be too small in BSIM4 model nmos with w=9e-008 l=4.5e-008.

 Warning: (B1 + Weff) may be too small in BSIM4 model nmos with w=9e-008 l=4.5e-008.

 Warning:  Acde = 1 may be too small in BSIM4 model nmos with w=1.8e-007 l=4.5e-008.

 Warning:  Acde = 1 may be too small in BSIM4 model nmos with w=1.8e-007 l=4.5e-008.

 Warning:  Acde = 1 may be too small in BSIM4 model nmos with w=9e-008 l=4.5e-008.

 Warning: (B1 + Weff) may be too small in BSIM4 model nmos with w=9e-008 l=4.5e-008.

 Warning:  Acde = 1 may be too small in BSIM4 model nmos with w=9e-008 l=4.5e-008.

 Warning: (B1 + Weff) may be too small in BSIM4 model nmos with w=9e-008 l=4.5e-008.

 Warning:  Acde = 1 may be too small in BSIM4 model nmos with w=9e-008 l=4.5e-008.

 Warning: (B1 + Weff) may be too small in BSIM4 model nmos with w=9e-008 l=4.5e-008.

 Warning:  Acde = 1 may be too small in BSIM4 model nmos with w=9e-008 l=4.5e-008.

 Warning: (B1 + Weff) may be too small in BSIM4 model nmos with w=9e-008 l=4.5e-008.

 Warning:  Acde = 1 may be too small in BSIM4 model nmos with w=9e-008 l=4.5e-008.

 Warning: (B1 + Weff) may be too small in BSIM4 model nmos with w=9e-008 l=4.5e-008.

 Warning:  Acde = 1 may be too small in BSIM4 model nmos with w=9e-008 l=4.5e-008.

 Warning: (B1 + Weff) may be too small in BSIM4 model nmos with w=9e-008 l=4.5e-008.

 Warning:  Acde = 1 may be too small in BSIM4 model nmos with w=9e-008 l=4.5e-008.

 Warning: (B1 + Weff) may be too small in BSIM4 model nmos with w=9e-008 l=4.5e-008.

 Warning:  Acde = 1 may be too small in BSIM4 model nmos with w=9e-008 l=4.5e-008.

 Warning: (B1 + Weff) may be too small in BSIM4 model nmos with w=9e-008 l=4.5e-008.

 Warning:  Acde = 1 may be too small in BSIM4 model nmos with w=1.8e-007 l=4.5e-008.

 Warning:  Acde = 1 may be too small in BSIM4 model nmos with w=1.8e-007 l=4.5e-008.

 Warning:  Acde = 1 may be too small in BSIM4 model nmos with w=9e-008 l=4.5e-008.

 Warning: (B1 + Weff) may be too small in BSIM4 model nmos with w=9e-008 l=4.5e-008.

 Warning:  Acde = 1 may be too small in BSIM4 model nmos with w=1.8e-007 l=4.5e-008.

 Warning:  Acde = 1 may be too small in BSIM4 model nmos with w=1.8e-007 l=4.5e-008.

 Warning:  Acde = 1 may be too small in BSIM4 model nmos with w=9e-008 l=4.5e-008.

 Warning: (B1 + Weff) may be too small in BSIM4 model nmos with w=9e-008 l=4.5e-008.

 Warning:  Acde = 1 may be too small in BSIM4 model nmos with w=9e-008 l=4.5e-008.

 Warning: (B1 + Weff) may be too small in BSIM4 model nmos with w=9e-008 l=4.5e-008.

 Warning:  Acde = 1 may be too small in BSIM4 model nmos with w=9e-008 l=4.5e-008.

 Warning: (B1 + Weff) may be too small in BSIM4 model nmos with w=9e-008 l=4.5e-008.

 Warning:  Acde = 1 may be too small in BSIM4 model nmos with w=9e-008 l=4.5e-008.

 Warning: (B1 + Weff) may be too small in BSIM4 model nmos with w=9e-008 l=4.5e-008.

 Warning:  Acde = 1 may be too small in BSIM4 model nmos with w=9e-008 l=4.5e-008.

 Warning: (B1 + Weff) may be too small in BSIM4 model nmos with w=9e-008 l=4.5e-008.

 Warning:  Acde = 1 may be too small in BSIM4 model nmos with w=9e-008 l=4.5e-008.

 Warning: (B1 + Weff) may be too small in BSIM4 model nmos with w=9e-008 l=4.5e-008.

 Warning:  Acde = 1 may be too small in BSIM4 model nmos with w=9e-008 l=4.5e-008.

 Warning: (B1 + Weff) may be too small in BSIM4 model nmos with w=9e-008 l=4.5e-008.

 Warning:  Acde = 1 may be too small in BSIM4 model nmos with w=9e-008 l=4.5e-008.

 Warning: (B1 + Weff) may be too small in BSIM4 model nmos with w=9e-008 l=4.5e-008.

 Warning:  Acde = 1 may be too small in BSIM4 model nmos with w=1.8e-007 l=4.5e-008.

 Warning:  Acde = 1 may be too small in BSIM4 model nmos with w=1.8e-007 l=4.5e-008.

 Warning:  Acde = 1 may be too small in BSIM4 model nmos with w=9e-008 l=4.5e-008.

 Warning: (B1 + Weff) may be too small in BSIM4 model nmos with w=9e-008 l=4.5e-008.

 Warning:  Acde = 1 may be too small in BSIM4 model nmos with w=1.8e-007 l=4.5e-008.

 Warning:  Acde = 1 may be too small in BSIM4 model nmos with w=1.8e-007 l=4.5e-008.

 Warning:  Acde = 1 may be too small in BSIM4 model nmos with w=9e-008 l=4.5e-008.

 Warning: (B1 + Weff) may be too small in BSIM4 model nmos with w=9e-008 l=4.5e-008.

 Warning:  Acde = 1 may be too small in BSIM4 model nmos with w=9e-008 l=4.5e-008.

 Warning: (B1 + Weff) may be too small in BSIM4 model nmos with w=9e-008 l=4.5e-008.

 Warning:  Acde = 1 may be too small in BSIM4 model nmos with w=9e-008 l=4.5e-008.

 Warning: (B1 + Weff) may be too small in BSIM4 model nmos with w=9e-008 l=4.5e-008.

 Warning:  Acde = 1 may be too small in BSIM4 model nmos with w=9e-008 l=4.5e-008.

 Warning: (B1 + Weff) may be too small in BSIM4 model nmos with w=9e-008 l=4.5e-008.

 Warning:  Acde = 1 may be too small in BSIM4 model nmos with w=9e-008 l=4.5e-008.

 Warning: (B1 + Weff) may be too small in BSIM4 model nmos with w=9e-008 l=4.5e-008.

 Warning:  Acde = 1 may be too small in BSIM4 model nmos with w=9e-008 l=4.5e-008.

 Warning: (B1 + Weff) may be too small in BSIM4 model nmos with w=9e-008 l=4.5e-008.

 Warning:  Acde = 1 may be too small in BSIM4 model nmos with w=9e-008 l=4.5e-008.

 Warning: (B1 + Weff) may be too small in BSIM4 model nmos with w=9e-008 l=4.5e-008.

 Warning:  Acde = 1 may be too small in BSIM4 model nmos with w=9e-008 l=4.5e-008.

 Warning: (B1 + Weff) may be too small in BSIM4 model nmos with w=9e-008 l=4.5e-008.

 Warning:  Acde = 1 may be too small in BSIM4 model nmos with w=1.8e-007 l=4.5e-008.

 Warning:  Acde = 1 may be too small in BSIM4 model nmos with w=1.8e-007 l=4.5e-008.

 Warning:  Acde = 1 may be too small in BSIM4 model nmos with w=9e-008 l=4.5e-008.

 Warning: (B1 + Weff) may be too small in BSIM4 model nmos with w=9e-008 l=4.5e-008.

 Warning:  Acde = 1 may be too small in BSIM4 model nmos with w=1.8e-007 l=4.5e-008.

 Warning:  Acde = 1 may be too small in BSIM4 model nmos with w=1.8e-007 l=4.5e-008.

 Warning:  Acde = 1 may be too small in BSIM4 model nmos with w=9e-008 l=4.5e-008.

 Warning: (B1 + Weff) may be too small in BSIM4 model nmos with w=9e-008 l=4.5e-008.

 Warning:  Acde = 1 may be too small in BSIM4 model nmos with w=9e-008 l=4.5e-008.

 Warning: (B1 + Weff) may be too small in BSIM4 model nmos with w=9e-008 l=4.5e-008.

 Warning:  Acde = 1 may be too small in BSIM4 model nmos with w=9e-008 l=4.5e-008.

 Warning: (B1 + Weff) may be too small in BSIM4 model nmos with w=9e-008 l=4.5e-008.

 Warning:  Acde = 1 may be too small in BSIM4 model nmos with w=9e-008 l=4.5e-008.

 Warning: (B1 + Weff) may be too small in BSIM4 model nmos with w=9e-008 l=4.5e-008.

 Warning:  Acde = 1 may be too small in BSIM4 model nmos with w=9e-008 l=4.5e-008.

 Warning: (B1 + Weff) may be too small in BSIM4 model nmos with w=9e-008 l=4.5e-008.

 Warning:  Acde = 1 may be too small in BSIM4 model nmos with w=9e-008 l=4.5e-008.

 Warning: (B1 + Weff) may be too small in BSIM4 model nmos with w=9e-008 l=4.5e-008.

 Warning:  Acde = 1 may be too small in BSIM4 model nmos with w=9e-008 l=4.5e-008.

 Warning: (B1 + Weff) may be too small in BSIM4 model nmos with w=9e-008 l=4.5e-008.

 Warning:  Acde = 1 may be too small in BSIM4 model nmos with w=9e-008 l=4.5e-008.

 Warning: (B1 + Weff) may be too small in BSIM4 model nmos with w=9e-008 l=4.5e-008.

 Warning:  Acde = 1 may be too small in BSIM4 model nmos with w=1.8e-007 l=4.5e-008.

 Warning:  Acde = 1 may be too small in BSIM4 model nmos with w=1.8e-007 l=4.5e-008.

 Warning:  Acde = 1 may be too small in BSIM4 model nmos with w=9e-008 l=4.5e-008.

 Warning: (B1 + Weff) may be too small in BSIM4 model nmos with w=9e-008 l=4.5e-008.

 Warning:  Acde = 1 may be too small in BSIM4 model nmos with w=1.8e-007 l=4.5e-008.

 Warning:  Acde = 1 may be too small in BSIM4 model nmos with w=1.8e-007 l=4.5e-008.

 Warning:  Acde = 1 may be too small in BSIM4 model nmos with w=9e-008 l=4.5e-008.

 Warning: (B1 + Weff) may be too small in BSIM4 model nmos with w=9e-008 l=4.5e-008.

 Warning:  Acde = 1 may be too small in BSIM4 model nmos with w=9e-008 l=4.5e-008.

 Warning: (B1 + Weff) may be too small in BSIM4 model nmos with w=9e-008 l=4.5e-008.

 Warning:  Acde = 1 may be too small in BSIM4 model nmos with w=9e-008 l=4.5e-008.

 Warning: (B1 + Weff) may be too small in BSIM4 model nmos with w=9e-008 l=4.5e-008.

 Warning:  Acde = 1 may be too small in BSIM4 model nmos with w=9e-008 l=4.5e-008.

 Warning: (B1 + Weff) may be too small in BSIM4 model nmos with w=9e-008 l=4.5e-008.

 Warning:  Acde = 1 may be too small in BSIM4 model pmos with w=3.6e-007 l=4.5e-008.

 Warning:  Acde = 1 may be too small in BSIM4 model pmos with w=3.6e-007 l=4.5e-008.

 Warning:  Acde = 1 may be too small in BSIM4 model pmos with w=3.6e-007 l=4.5e-008.

 Warning:  Acde = 1 may be too small in BSIM4 model pmos with w=3.6e-007 l=4.5e-008.

 Warning:  Acde = 1 may be too small in BSIM4 model pmos with w=3.6e-007 l=4.5e-008.

 Warning:  Acde = 1 may be too small in BSIM4 model pmos with w=3.6e-007 l=4.5e-008.

 Warning:  Acde = 1 may be too small in BSIM4 model pmos with w=3.6e-007 l=4.5e-008.

 Warning:  Acde = 1 may be too small in BSIM4 model pmos with w=3.6e-007 l=4.5e-008.

 Warning:  Acde = 1 may be too small in BSIM4 model pmos with w=3.6e-007 l=4.5e-008.

 Warning:  Acde = 1 may be too small in BSIM4 model pmos with w=3.6e-007 l=4.5e-008.

 Warning:  Acde = 1 may be too small in BSIM4 model pmos with w=3.6e-007 l=4.5e-008.

 Warning:  Acde = 1 may be too small in BSIM4 model pmos with w=3.6e-007 l=4.5e-008.

 Warning:  Acde = 1 may be too small in BSIM4 model pmos with w=3.6e-007 l=4.5e-008.

 Warning:  Acde = 1 may be too small in BSIM4 model pmos with w=3.6e-007 l=4.5e-008.

 Warning:  Acde = 1 may be too small in BSIM4 model pmos with w=3.6e-007 l=4.5e-008.

 Warning:  Acde = 1 may be too small in BSIM4 model pmos with w=3.6e-007 l=4.5e-008.

 Warning:  Acde = 1 may be too small in BSIM4 model pmos with w=3.6e-007 l=4.5e-008.

 Warning:  Acde = 1 may be too small in BSIM4 model pmos with w=3.6e-007 l=4.5e-008.

 Warning:  Acde = 1 may be too small in BSIM4 model pmos with w=3.6e-007 l=4.5e-008.

 Warning:  Acde = 1 may be too small in BSIM4 model pmos with w=3.6e-007 l=4.5e-008.

 Warning:  Acde = 1 may be too small in BSIM4 model pmos with w=3.6e-007 l=4.5e-008.

 Warning:  Acde = 1 may be too small in BSIM4 model pmos with w=3.6e-007 l=4.5e-008.

 Warning:  Acde = 1 may be too small in BSIM4 model pmos with w=3.6e-007 l=4.5e-008.

 Warning:  Acde = 1 may be too small in BSIM4 model pmos with w=3.6e-007 l=4.5e-008.

 Warning:  Acde = 1 may be too small in BSIM4 model pmos with w=3.6e-007 l=4.5e-008.

 Warning:  Acde = 1 may be too small in BSIM4 model pmos with w=3.6e-007 l=4.5e-008.

 Warning:  Acde = 1 may be too small in BSIM4 model pmos with w=3.6e-007 l=4.5e-008.

 Warning:  Acde = 1 may be too small in BSIM4 model pmos with w=3.6e-007 l=4.5e-008.

 Warning:  Acde = 1 may be too small in BSIM4 model pmos with w=3.6e-007 l=4.5e-008.

 Warning:  Acde = 1 may be too small in BSIM4 model pmos with w=3.6e-007 l=4.5e-008.

 Warning:  Acde = 1 may be too small in BSIM4 model pmos with w=3.6e-007 l=4.5e-008.

 Warning:  Acde = 1 may be too small in BSIM4 model pmos with w=3.6e-007 l=4.5e-008.

 Warning:  Acde = 1 may be too small in BSIM4 model pmos with w=3.6e-007 l=4.5e-008.

 Warning:  Acde = 1 may be too small in BSIM4 model pmos with w=3.6e-007 l=4.5e-008.

 Warning:  Acde = 1 may be too small in BSIM4 model pmos with w=3.6e-007 l=4.5e-008.

 Warning:  Acde = 1 may be too small in BSIM4 model pmos with w=3.6e-007 l=4.5e-008.

 Warning:  Acde = 1 may be too small in BSIM4 model pmos with w=3.6e-007 l=4.5e-008.

 Warning:  Acde = 1 may be too small in BSIM4 model pmos with w=3.6e-007 l=4.5e-008.

 Warning:  Acde = 1 may be too small in BSIM4 model pmos with w=3.6e-007 l=4.5e-008.

 Warning:  Acde = 1 may be too small in BSIM4 model pmos with w=3.6e-007 l=4.5e-008.

 Warning:  Acde = 1 may be too small in BSIM4 model pmos with w=3.6e-007 l=4.5e-008.

 Warning:  Acde = 1 may be too small in BSIM4 model pmos with w=3.6e-007 l=4.5e-008.

 Warning:  Acde = 1 may be too small in BSIM4 model pmos with w=3.6e-007 l=4.5e-008.

 Warning:  Acde = 1 may be too small in BSIM4 model pmos with w=3.6e-007 l=4.5e-008.

 Warning:  Acde = 1 may be too small in BSIM4 model pmos with w=3.6e-007 l=4.5e-008.

 Warning:  Acde = 1 may be too small in BSIM4 model pmos with w=3.6e-007 l=4.5e-008.

 Warning:  Acde = 1 may be too small in BSIM4 model pmos with w=3.6e-007 l=4.5e-008.

 Warning:  Acde = 1 may be too small in BSIM4 model pmos with w=3.6e-007 l=4.5e-008.

 Warning:  Acde = 1 may be too small in BSIM4 model pmos with w=3.6e-007 l=4.5e-008.

 Warning:  Acde = 1 may be too small in BSIM4 model pmos with w=3.6e-007 l=4.5e-008.

 Warning:  Acde = 1 may be too small in BSIM4 model pmos with w=3.6e-007 l=4.5e-008.

 Warning:  Acde = 1 may be too small in BSIM4 model pmos with w=3.6e-007 l=4.5e-008.

 Warning:  Acde = 1 may be too small in BSIM4 model pmos with w=3.6e-007 l=4.5e-008.

 Warning:  Acde = 1 may be too small in BSIM4 model pmos with w=3.6e-007 l=4.5e-008.

 Warning:  Acde = 1 may be too small in BSIM4 model pmos with w=3.6e-007 l=4.5e-008.

 Warning:  Acde = 1 may be too small in BSIM4 model pmos with w=3.6e-007 l=4.5e-008.

 Warning:  Acde = 1 may be too small in BSIM4 model pmos with w=3.6e-007 l=4.5e-008.

 Warning:  Acde = 1 may be too small in BSIM4 model pmos with w=3.6e-007 l=4.5e-008.

 Warning:  Acde = 1 may be too small in BSIM4 model pmos with w=3.6e-007 l=4.5e-008.

 Warning:  Acde = 1 may be too small in BSIM4 model pmos with w=3.6e-007 l=4.5e-008.

 Warning:  Acde = 1 may be too small in BSIM4 model pmos with w=3.6e-007 l=4.5e-008.

 Warning:  Acde = 1 may be too small in BSIM4 model pmos with w=3.6e-007 l=4.5e-008.

 Warning:  Acde = 1 may be too small in BSIM4 model pmos with w=3.6e-007 l=4.5e-008.

 Warning:  Acde = 1 may be too small in BSIM4 model pmos with w=3.6e-007 l=4.5e-008.

 Warning:  Acde = 1 may be too small in BSIM4 model pmos with w=1.8e-007 l=4.5e-008.

 Warning:  Acde = 1 may be too small in BSIM4 model pmos with w=1.8e-007 l=4.5e-008.

 Warning:  Acde = 1 may be too small in BSIM4 model pmos with w=1.8e-007 l=4.5e-008.

 Warning:  Acde = 1 may be too small in BSIM4 model pmos with w=1.8e-007 l=4.5e-008.

 Warning:  Acde = 1 may be too small in BSIM4 model pmos with w=1.8e-007 l=4.5e-008.

 Warning:  Acde = 1 may be too small in BSIM4 model pmos with w=1.8e-007 l=4.5e-008.

 Warning:  Acde = 1 may be too small in BSIM4 model pmos with w=1.8e-007 l=4.5e-008.

 Warning:  Acde = 1 may be too small in BSIM4 model pmos with w=1.8e-007 l=4.5e-008.

 Warning:  Acde = 1 may be too small in BSIM4 model pmos with w=1.8e-007 l=4.5e-008.

 Warning:  Acde = 1 may be too small in BSIM4 model pmos with w=1.8e-007 l=4.5e-008.

 Warning:  Acde = 1 may be too small in BSIM4 model pmos with w=3.6e-007 l=4.5e-008.

 Warning:  Acde = 1 may be too small in BSIM4 model pmos with w=3.6e-007 l=4.5e-008.

 Warning:  Acde = 1 may be too small in BSIM4 model pmos with w=1.8e-007 l=4.5e-008.

 Warning:  Acde = 1 may be too small in BSIM4 model pmos with w=1.8e-007 l=4.5e-008.

 Warning:  Acde = 1 may be too small in BSIM4 model pmos with w=1.8e-007 l=4.5e-008.

 Warning:  Acde = 1 may be too small in BSIM4 model pmos with w=1.8e-007 l=4.5e-008.

 Warning:  Acde = 1 may be too small in BSIM4 model pmos with w=1.8e-007 l=4.5e-008.

 Warning:  Acde = 1 may be too small in BSIM4 model pmos with w=1.8e-007 l=4.5e-008.

 Warning:  Acde = 1 may be too small in BSIM4 model pmos with w=1.8e-007 l=4.5e-008.

 Warning:  Acde = 1 may be too small in BSIM4 model pmos with w=1.8e-007 l=4.5e-008.

 Warning:  Acde = 1 may be too small in BSIM4 model pmos with w=1.8e-007 l=4.5e-008.

 Warning:  Acde = 1 may be too small in BSIM4 model pmos with w=1.8e-007 l=4.5e-008.

 Warning:  Acde = 1 may be too small in BSIM4 model pmos with w=1.8e-007 l=4.5e-008.

 Warning:  Acde = 1 may be too small in BSIM4 model pmos with w=3.6e-007 l=4.5e-008.

 Warning:  Acde = 1 may be too small in BSIM4 model pmos with w=3.6e-007 l=4.5e-008.

 Warning:  Acde = 1 may be too small in BSIM4 model pmos with w=1.8e-007 l=4.5e-008.

 Warning:  Acde = 1 may be too small in BSIM4 model pmos with w=1.8e-007 l=4.5e-008.

 Warning:  Acde = 1 may be too small in BSIM4 model pmos with w=1.8e-007 l=4.5e-008.

 Warning:  Acde = 1 may be too small in BSIM4 model pmos with w=1.8e-007 l=4.5e-008.

 Warning:  Acde = 1 may be too small in BSIM4 model pmos with w=1.8e-007 l=4.5e-008.

 Warning:  Acde = 1 may be too small in BSIM4 model pmos with w=1.8e-007 l=4.5e-008.

 Warning:  Acde = 1 may be too small in BSIM4 model pmos with w=1.8e-007 l=4.5e-008.

 Warning:  Acde = 1 may be too small in BSIM4 model pmos with w=1.8e-007 l=4.5e-008.

 Warning:  Acde = 1 may be too small in BSIM4 model pmos with w=1.8e-007 l=4.5e-008.

 Warning:  Acde = 1 may be too small in BSIM4 model pmos with w=1.8e-007 l=4.5e-008.

 Warning:  Acde = 1 may be too small in BSIM4 model pmos with w=1.8e-007 l=4.5e-008.

 Warning:  Acde = 1 may be too small in BSIM4 model pmos with w=3.6e-007 l=4.5e-008.

 Warning:  Acde = 1 may be too small in BSIM4 model pmos with w=3.6e-007 l=4.5e-008.

 Warning:  Acde = 1 may be too small in BSIM4 model pmos with w=1.8e-007 l=4.5e-008.

 Warning:  Acde = 1 may be too small in BSIM4 model pmos with w=1.8e-007 l=4.5e-008.

 Warning:  Acde = 1 may be too small in BSIM4 model pmos with w=1.8e-007 l=4.5e-008.

 Warning:  Acde = 1 may be too small in BSIM4 model pmos with w=1.8e-007 l=4.5e-008.

 Warning:  Acde = 1 may be too small in BSIM4 model pmos with w=1.8e-007 l=4.5e-008.

 Warning:  Acde = 1 may be too small in BSIM4 model pmos with w=1.8e-007 l=4.5e-008.

 Warning:  Acde = 1 may be too small in BSIM4 model pmos with w=1.8e-007 l=4.5e-008.

 Warning:  Acde = 1 may be too small in BSIM4 model pmos with w=1.8e-007 l=4.5e-008.

 Warning:  Acde = 1 may be too small in BSIM4 model pmos with w=1.8e-007 l=4.5e-008.

 Warning:  Acde = 1 may be too small in BSIM4 model pmos with w=1.8e-007 l=4.5e-008.

 Warning:  Acde = 1 may be too small in BSIM4 model pmos with w=1.8e-007 l=4.5e-008.

 Warning:  Acde = 1 may be too small in BSIM4 model pmos with w=3.6e-007 l=4.5e-008.

 Warning:  Acde = 1 may be too small in BSIM4 model pmos with w=3.6e-007 l=4.5e-008.

 Warning:  Acde = 1 may be too small in BSIM4 model pmos with w=1.8e-007 l=4.5e-008.

 Warning:  Acde = 1 may be too small in BSIM4 model pmos with w=1.8e-007 l=4.5e-008.

 Warning:  Acde = 1 may be too small in BSIM4 model pmos with w=1.8e-007 l=4.5e-008.

 Warning:  Acde = 1 may be too small in BSIM4 model pmos with w=1.8e-007 l=4.5e-008.

 Warning:  Acde = 1 may be too small in BSIM4 model pmos with w=1.8e-007 l=4.5e-008.

 Warning:  Acde = 1 may be too small in BSIM4 model pmos with w=1.8e-007 l=4.5e-008.

 Warning:  Acde = 1 may be too small in BSIM4 model pmos with w=1.8e-007 l=4.5e-008.

 Warning:  Acde = 1 may be too small in BSIM4 model pmos with w=1.8e-007 l=4.5e-008.

 Warning:  Acde = 1 may be too small in BSIM4 model pmos with w=1.8e-007 l=4.5e-008.

 Warning:  Acde = 1 may be too small in BSIM4 model pmos with w=1.8e-007 l=4.5e-008.

 Warning:  Acde = 1 may be too small in BSIM4 model pmos with w=1.8e-007 l=4.5e-008.

 Warning:  Acde = 1 may be too small in BSIM4 model pmos with w=3.6e-007 l=4.5e-008.

 Warning:  Acde = 1 may be too small in BSIM4 model pmos with w=3.6e-007 l=4.5e-008.

 Warning:  Acde = 1 may be too small in BSIM4 model pmos with w=1.8e-007 l=4.5e-008.

 Warning:  Acde = 1 may be too small in BSIM4 model pmos with w=1.8e-007 l=4.5e-008.

 Warning:  Acde = 1 may be too small in BSIM4 model pmos with w=1.8e-007 l=4.5e-008.

 Warning:  Acde = 1 may be too small in BSIM4 model pmos with w=1.8e-007 l=4.5e-008.

 Warning:  Acde = 1 may be too small in BSIM4 model pmos with w=1.8e-007 l=4.5e-008.

 Warning:  Acde = 1 may be too small in BSIM4 model pmos with w=1.8e-007 l=4.5e-008.

 Warning:  Acde = 1 may be too small in BSIM4 model pmos with w=1.8e-007 l=4.5e-008.

 Warning:  Acde = 1 may be too small in BSIM4 model pmos with w=1.8e-007 l=4.5e-008.

 Warning:  Acde = 1 may be too small in BSIM4 model pmos with w=1.8e-007 l=4.5e-008.

 Warning:  Acde = 1 may be too small in BSIM4 model pmos with w=1.8e-007 l=4.5e-008.

 Warning:  Acde = 1 may be too small in BSIM4 model pmos with w=1.8e-007 l=4.5e-008.

 Warning:  Acde = 1 may be too small in BSIM4 model pmos with w=3.6e-007 l=4.5e-008.

 Warning:  Acde = 1 may be too small in BSIM4 model pmos with w=3.6e-007 l=4.5e-008.

 Warning:  Acde = 1 may be too small in BSIM4 model pmos with w=1.8e-007 l=4.5e-008.

 Warning:  Acde = 1 may be too small in BSIM4 model pmos with w=1.8e-007 l=4.5e-008.

 Warning:  Acde = 1 may be too small in BSIM4 model pmos with w=1.8e-007 l=4.5e-008.

 Warning:  Acde = 1 may be too small in BSIM4 model pmos with w=1.8e-007 l=4.5e-008.

 Warning:  Acde = 1 may be too small in BSIM4 model pmos with w=1.8e-007 l=4.5e-008.

 Warning:  Acde = 1 may be too small in BSIM4 model pmos with w=1.8e-007 l=4.5e-008.

 Warning:  Acde = 1 may be too small in BSIM4 model pmos with w=1.8e-007 l=4.5e-008.

 Warning:  Acde = 1 may be too small in BSIM4 model pmos with w=1.8e-007 l=4.5e-008.

 Warning:  Acde = 1 may be too small in BSIM4 model pmos with w=1.8e-007 l=4.5e-008.

 Warning:  Acde = 1 may be too small in BSIM4 model pmos with w=1.8e-007 l=4.5e-008.

 Warning:  Acde = 1 may be too small in BSIM4 model pmos with w=1.8e-007 l=4.5e-008.

 Warning:  Acde = 1 may be too small in BSIM4 model pmos with w=3.6e-007 l=4.5e-008.

 Warning:  Acde = 1 may be too small in BSIM4 model pmos with w=3.6e-007 l=4.5e-008.

 Warning:  Acde = 1 may be too small in BSIM4 model pmos with w=1.8e-007 l=4.5e-008.

 Warning:  Acde = 1 may be too small in BSIM4 model pmos with w=1.8e-007 l=4.5e-008.

 Warning:  Acde = 1 may be too small in BSIM4 model pmos with w=1.8e-007 l=4.5e-008.

 Warning:  Acde = 1 may be too small in BSIM4 model pmos with w=1.8e-007 l=4.5e-008.

 Warning:  Acde = 1 may be too small in BSIM4 model pmos with w=1.8e-007 l=4.5e-008.

 Warning:  Acde = 1 may be too small in BSIM4 model pmos with w=1.8e-007 l=4.5e-008.

 Warning:  Acde = 1 may be too small in BSIM4 model pmos with w=1.8e-007 l=4.5e-008.

 Warning:  Acde = 1 may be too small in BSIM4 model pmos with w=1.8e-007 l=4.5e-008.

 Warning:  Acde = 1 may be too small in BSIM4 model pmos with w=1.8e-007 l=4.5e-008.

 Warning:  Acde = 1 may be too small in BSIM4 model pmos with w=1.8e-007 l=4.5e-008.

 Warning:  Acde = 1 may be too small in BSIM4 model pmos with w=1.8e-007 l=4.5e-008.

 Warning:  Acde = 1 may be too small in BSIM4 model pmos with w=3.6e-007 l=4.5e-008.

 Warning:  Acde = 1 may be too small in BSIM4 model pmos with w=3.6e-007 l=4.5e-008.

 Warning:  Acde = 1 may be too small in BSIM4 model pmos with w=1.8e-007 l=4.5e-008.

 
      
  Opening plot unit= 79
 file=d:\sharif courses\vlsi\project\booth algorithm\advanced-vlsi-project\phas


 **diagnostic** dc convergence failure, 
 resetting dcon option to 1 and retrying

 **diagnostic** dc convergence successful
 you can increase the efficiency of the
 operating point calculation by setting dcon= 1
 in the .option statement
1****** HSPICE -- A-2008.03 32-BIT (Feb 26 2008) winnt ******                   
 ******  
 * top-level ripple carry adder                                                 
  ******  operating point information      tnom=  25.000 temp=  25.000          
 ******  
 ***** operating point status is voltage   simulation time is     0.     
      node    =voltage        node    =voltage        node    =voltage

 +  0:a0      =   0.        0:a1      = 900.0000m   0:a2      = 900.0000m
 +  0:a3      = 900.0000m   0:a4      = 900.0000m   0:a5      = 900.0000m
 +  0:a6      = 900.0000m   0:a7      = 900.0000m   0:b0      = 900.0000m
 +  0:b1      =   0.        0:b2      =   0.        0:b3      =   0.     
 +  0:b4      =   0.        0:b5      =   0.        0:b6      =   0.     
 +  0:b7      =   0.        0:cout1   = 499.5758u   0:cout2   = 499.5758u
 +  0:cout3   = 499.5758u   0:cout4   = 499.5758u   0:cout5   = 499.5758u
 +  0:cout6   = 499.5758u   0:cout7   = 499.5758u   0:cout8   = 123.7475u
 +  0:sum1    = 899.6054m   0:sum2    = 899.6048m   0:sum3    = 899.6048m
 +  0:sum4    = 899.6048m   0:sum5    = 899.6048m   0:sum6    = 899.6048m
 +  0:sum7    = 899.6048m   0:sum8    = 899.6048m   0:supply  = 900.0000m
 +  1:in1andin= 299.4762u   1:in1xorin= 899.4288m   1:in1xorin= 299.5387u
 +  2:in1andin= 299.3787u   2:in1xorin= 899.4289m   2:in1xorin= 299.5398u
 +  3:in1andin= 299.3787u   3:in1xorin= 899.4289m   3:in1xorin= 299.5398u
 +  4:in1andin= 299.3787u   4:in1xorin= 899.4289m   4:in1xorin= 299.5398u
 +  5:in1andin= 299.3787u   5:in1xorin= 899.4289m   5:in1xorin= 299.5398u
 +  6:in1andin= 299.3787u   6:in1xorin= 899.4289m   6:in1xorin= 299.5398u
 +  7:in1andin= 299.3787u   7:in1xorin= 899.4289m   7:in1xorin= 299.5398u
 +  8:in1andin= 299.3786u   8:in1xorin= 899.4289m   8:in1xorin= 299.5398u
 +  9:in1_n   = 899.7861m   9:in2_n   = 313.0183u   9:nodo1   = 899.7171m
 +  9:nodo2   = 899.6593m   9:nodo3   =  43.8934u   9:nodo4   = 747.1152m
 + 10:in1_n   = 301.9946u  10:in2_n   = 899.8929m  10:nodo1   = 899.7476m
 + 10:nodo2   = 899.8043m  10:nodo3   = 746.9010m  10:nodo4   =  43.6636u
 + 11:nodo1   = 899.8007m  12:nodo1   = 899.7594m  13:nodo1   = 899.6053m
 + 14:in1_n   = 300.6365u  14:in2_n   = 899.8929m  14:nodo1   = 899.6593m
 + 14:nodo2   = 899.7159m  14:nodo3   = 746.8875m  14:nodo4   =  43.6950u
 + 15:in1_n   = 301.9944u  15:in2_n   = 899.8926m  15:nodo1   = 899.7474m
 + 15:nodo2   = 899.8040m  15:nodo3   = 746.9007m  15:nodo4   =  44.0069u
 + 16:nodo1   = 899.8002m  17:nodo1   = 899.8006m  18:nodo1   = 899.6053m
 + 19:in1_n   = 300.6365u  19:in2_n   = 899.8929m  19:nodo1   = 899.6593m
 + 19:nodo2   = 899.7159m  19:nodo3   = 746.8875m  19:nodo4   =  43.6950u
 + 20:in1_n   = 301.9944u  20:in2_n   = 899.8926m  20:nodo1   = 899.7474m
 + 20:nodo2   = 899.8040m  20:nodo3   = 746.9007m  20:nodo4   =  44.0069u
 + 21:nodo1   = 899.8002m  22:nodo1   = 899.8006m  23:nodo1   = 899.6053m
 + 24:in1_n   = 300.6365u  24:in2_n   = 899.8929m  24:nodo1   = 899.6593m
 + 24:nodo2   = 899.7159m  24:nodo3   = 746.8875m  24:nodo4   =  43.6950u
 + 25:in1_n   = 301.9944u  25:in2_n   = 899.8926m  25:nodo1   = 899.7474m
 + 25:nodo2   = 899.8040m  25:nodo3   = 746.9007m  25:nodo4   =  44.0069u
 + 26:nodo1   = 899.8002m  27:nodo1   = 899.8006m  28:nodo1   = 899.6053m
 + 29:in1_n   = 300.6365u  29:in2_n   = 899.8929m  29:nodo1   = 899.6593m
 + 29:nodo2   = 899.7159m  29:nodo3   = 746.8875m  29:nodo4   =  43.6950u
 + 30:in1_n   = 301.9944u  30:in2_n   = 899.8926m  30:nodo1   = 899.7474m
 + 30:nodo2   = 899.8040m  30:nodo3   = 746.9007m  30:nodo4   =  44.0069u
 + 31:nodo1   = 899.8002m  32:nodo1   = 899.8006m  33:nodo1   = 899.6053m
 + 34:in1_n   = 300.6365u  34:in2_n   = 899.8929m  34:nodo1   = 899.6593m
 + 34:nodo2   = 899.7159m  34:nodo3   = 746.8875m  34:nodo4   =  43.6950u
 + 35:in1_n   = 301.9944u  35:in2_n   = 899.8926m  35:nodo1   = 899.7474m
 + 35:nodo2   = 899.8040m  35:nodo3   = 746.9007m  35:nodo4   =  44.0069u
 + 36:nodo1   = 899.8002m  37:nodo1   = 899.8006m  38:nodo1   = 899.6053m
 + 39:in1_n   = 300.6365u  39:in2_n   = 899.8929m  39:nodo1   = 899.6593m
 + 39:nodo2   = 899.7159m  39:nodo3   = 746.8875m  39:nodo4   =  43.6950u
 + 40:in1_n   = 301.9944u  40:in2_n   = 899.8926m  40:nodo1   = 899.7474m
 + 40:nodo2   = 899.8040m  40:nodo3   = 746.9007m  40:nodo4   =  44.0069u
 + 41:nodo1   = 899.8002m  42:nodo1   = 899.8006m  43:nodo1   = 899.6053m
 + 44:in1_n   = 300.6365u  44:in2_n   = 899.8929m  44:nodo1   = 899.6593m
 + 44:nodo2   = 899.7159m  44:nodo3   = 746.8875m  44:nodo4   =  43.6950u
 + 45:in1_n   = 301.9944u  45:in2_n   = 899.8926m  45:nodo1   = 899.7474m
 + 45:nodo2   = 899.8040m  45:nodo3   = 746.9007m  45:nodo4   =  44.0069u
 + 46:nodo1   = 899.8002m  47:nodo1   = 899.8006m  48:nodo1   = 899.6052m
 + 53:nodo1   = 746.7077m  55:nodo1   =  43.7164u  57:nodo1   = 899.7475m
 + 63:nodo1   = 746.4654m  65:nodo1   = 747.1450m  67:nodo1   = 899.7475m
 + 73:nodo1   = 746.4654m  75:nodo1   = 747.1450m  77:nodo1   = 899.7475m
 + 83:nodo1   = 746.4654m  85:nodo1   = 747.1450m  87:nodo1   = 899.7475m
 + 93:nodo1   = 746.4654m  95:nodo1   = 747.1450m  97:nodo1   = 899.7475m
 +103:nodo1   = 746.4654m 105:nodo1   = 747.1450m 107:nodo1   = 899.7475m
 +113:nodo1   = 746.4654m 115:nodo1   = 747.1450m 117:nodo1   = 899.7475m
 +123:nodo1   = 746.4654m 125:nodo1   = 747.1450m 127:nodo1   = 899.7475m

 ******  
 * top-level ripple carry adder                                                 
  ******  transient analysis               tnom=  25.000 temp=  25.000          
 ******  
   critico=  1.6417E-10  targ=  1.1692E-09   trig=  1.0050E-09

          ***** job concluded
1****** HSPICE -- A-2008.03 32-BIT (Feb 26 2008) winnt ******                   
 ******  
 * top-level ripple carry adder                                                 
  ******  job statistics summary           tnom=  25.000 temp=  25.000          
 ******  

           total memory used       2672 kbytes

  # nodes =    1546 # elements=     353
  # diodes=       0 # bjts    =       0 # jfets   =       0 # mosfets =     336
  # va device =       0

    analysis           time    # points   tot. iter  conv.iter

    op point           0.18           1         143
    transient          0.34        2001         428         146 rev=         1
    readin             0.02
    errchk             0.02
    setup              0.02
    output             0.00
           total cpu time          0.60 seconds
           total elapsed time         1 seconds
               job started at  18:47:21 07/18/2008
               job ended   at  18:47:21 07/18/2008


 Init: hspice initialization file: C:\Synopsys\Hspice_A-2008.03\hspice.ini
