$DATA1 SOURCE='HSPICE' VERSION='A-2008.03 32-BIT'
.TITLE '* xor gate subcircuit'
 tpdr             tpdf             tdelay           trise             
 tfall            iavg             pleak            temper            
 alter#            
    failed           failed           failed           failed         
    failed        -3.976e-07        3.579e-07         25.0000         
    1.0000         
