$DATA1 SOURCE='HSPICE' VERSION='A-2008.03 32-BIT'
.TITLE '* and gate subcircuit'
 tpdr             tpdf             tdelay           trise             
 tfall            iavg             pleak            temper            
 alter#            
 -7.094e-09        7.651e-12       -3.543e-09        2.172e-11        
  8.825e-12       -4.183e-07        3.765e-07         25.0000         
    1.0000         
