$DATA1 SOURCE='HSPICE' VERSION='A-2008.03 32-BIT'
.TITLE '* full adder subcircuit'
 tpdr             tpdf             tdelay           trise             
 tfall            iavg             pleak            temper            
 alter#            
    failed           failed           failed           failed         
    failed        -1.314e-06        1.182e-06         25.0000         
    1.0000         
