$DATA1 SOURCE='HSPICE' VERSION='A-2008.03 32-BIT'
.TITLE '* nand gate subcircuit'
 tpdr             tpdf             tdelay           iavg              
 pleak            temper           alter#            
    failed           failed           failed           failed         
    failed          25.0000           1.0000         
