$DATA1 SOURCE='HSPICE' VERSION='A-2008.03 32-BIT'
.TITLE '* nand gate subcircuit'
 tpdr             tpdf             tdelay           trise             
 tfall            iavg             pleak            temper            
 alter#            
  6.035e-09       -1.042e-09        2.497e-09        1.612e-10        
  1.218e-10       -2.987e-06        2.688e-06         25.0000         
    1.0000         
